7
	Energy:     160.8205413
S         -3.41701        0.81544        0.65815
O         -2.29037        1.98987        0.00371
H         -2.07020        1.88073       -0.97009
O         -4.23007        1.91611       -0.39254
H         -4.85018        2.42286        0.19451
O         -2.30539       -0.05281        0.03989
O         -4.14878        0.03472       -0.44507
